Circuit: * C:\Users\eswar\OneDrive\Documents\3010-5.asc

Error on line 5 : s1 n001 n002 nc_04 nc_05 5 sw 10
	 Unable to find definition of model "5"
WARNING: Node NC_04 is floating.
WARNING: Node NC_05 is floating.

WARNING: Less than two connections to node nc_04.  This node is used by s1.
WARNING: Less than two connections to node nc_05.  This node is used by s1.
Direct Newton iteration failed to find .op point.  (Use ".option noopiter" to skip.)
Starting Gmin stepping
Gmin = 10
Gmin = 1.07374
Gmin = 0.115292
Gmin = 0.0123794
Gmin = 0.00132923
Gmin = 0.000142725
Gmin = 1.5325e-05
Gmin = 1.6455e-06
Gmin = 1.76685e-07
Gmin = 1.89714e-08
Gmin = 2.03704e-09
Gmin = 2.18725e-10
Gmin = 2.34854e-11
Gmin = 2.52173e-12
Gmin = 2.70769e-13
Gmin = 0
Gmin stepping succeeded in finding the operating point.

Ignoring empty pin current: Ix(u1:3)
Ignoring empty pin current: Ix(u1:6)
Ignoring empty pin current: Ix(u1:7)
Ignoring empty pin current: Ix(u1:3)
Ignoring empty pin current: Ix(u1:6)
Ignoring empty pin current: Ix(u1:7)

Date: Wed Apr 26 16:45:56 2023
Total elapsed time: 1.459 seconds.

tnom = 27
temp = 27
method = modified trap
totiter = 2535
traniter = 2088
tranpoints = 1045
accept = 1045
rejected = 0
matrix size = 17
fillins = 7
solver = Normal
Avg thread counts: 1.3/1.6/1.6/1.3
Matrix Compiler1: 1.57 KB object code size  0.4/0.2/[0.1]
Matrix Compiler2:     124 opcodes  0.2/[0.2]/0.2

